include kalj.lmp
units lj
atom_style atomic

variable dimensions equal 3
variable density equal 1.2
variable fraca equal 0.8

dimension 3
read_restart equil/kalj_T0.8_n480_v400_150000_1.final.lmprestart.150000
Reading restart file ...
  restart file = 15 Sep 2022, LAMMPS = 15 Sep 2022
  restoring atom style atomic from restart
  orthogonal box = (0 0 0) to (7.368063 7.368063 7.368063)
  restoring pair style lj/cut from restart
  480 atoms
  read_restart CPU = 0.026 seconds
include kalj_particles.lmp
mass * 1.0 #  set mass 1.0 for all types

pair_style lj/cut 2.5
#pair coeffs type1 type2 eps sigma
pair_coeff 1 1 1.0 1.00 2.5
pair_coeff 1 2 1.5 0.80 2.0
pair_coeff 2 2 0.5 0.88 2.2
pair_modify shift yes
reset_timestep 0

print "Setting up equilibration run"
Setting up equilibration run
variable dumptime2 equal 150000/2000
dump 1 all dcd 75 prod/kalj_T0.8_n480_v400_prod_150000_1.unwrap.dcd
dump_modify 1 unwrap yes
#dump_modify 2 unwrap no

restart 150000 prod/kalj_T0.8_n480_v400_prod_150000_1.restart
restart 150000 prod/kalj_T0.8_n480_v400_prod_150000_1.final.lmprestart

thermo 5000
timestep 0.002

neighbor 0.5 bin
neigh_modify every 1 delay 25 check yes

fix 1 all nvt temp 0.8 0.8 0.2
  fix style: nvt, fix ID: 1

variable steps4 equal 150000/4
run 37500
Generated 0 of 1 mixed pair_coeff terms from geometric mixing rule
All restart file global fix info was re-assigned
Step          Temp          E_pair         E_mol          TotEng         Press
0   0.78442075    -6.3747841      0             -5.2006042      7.5266008
Averages over the last 5 of 9 rows, steps 20000 to 37500:
Temp E_pair E_mol TotEng Press
0.79636 -6.33658 0 -5.14453 7.68577
Loop time of 4.10984 on 4 procs for 37500 steps with 480 atoms
