include kalj.lmp
units lj
atom_style atomic

variable dimensions equal 3
variable density equal 1.2
variable fraca equal 0.8

dimension 3
read_restart equil/kalj_T0.8_n480_v400_150000_1.final.lmprestart.150000
Reading restart file ...
  restart file = 15 Sep 2022, LAMMPS = 15 Sep 2022
  restoring atom style atomic from restart
  orthogonal box = (0 0 0) to (7.368063 7.368063 7.368063)
  restoring pair style lj/cut from restart
  480 atoms
  read_restart CPU = 0.002 seconds
include kalj_particles.lmp
mass * 1.0 #  set mass 1.0 for all types

pair_style lj/cut 2.5
#pair coeffs type1 type2 eps sigma
pair_coeff 1 1 1.0 1.00 2.5
pair_coeff 1 2 1.5 0.80 2.0
pair_coeff 2 2 0.5 0.88 2.2
pair_modify shift yes
reset_timestep 0

print "Setting up annealing run"
Setting up annealing run
dump 1 all atom 60000 equil/kalj_T0.7_n480_v400_180000_1.lammpstrj
#dump_modify 1 sort id scale no

restart 180000 equil/kalj_T0.7_n480_v400_180000_1.restart
restart 180000 equil/kalj_T0.7_n480_v400_180000_1.final.lmprestart

thermo 6000
timestep 0.003

neighbor 0.5 bin
neigh_modify every 1 delay 25 check yes

velocity all create 0.7 1 dist gaussian
fix 1 all nvt temp 0.7 0.7 0.3
  fix style: nvt, fix ID: 1
run 180000
Generated 0 of 1 mixed pair_coeff terms from geometric mixing rule
All restart file global fix info was re-assigned
Step          Temp          E_pair         E_mol          TotEng         Press
0   0.7           -6.3747841      0             -5.3269716      7.425507
Averages over the last 16 of 31 rows, steps 90000 to 180000:
Temp E_pair E_mol TotEng Press
0.704968 -6.52465 0 -5.4694 6.38579
Loop time of 20.1161 on 4 procs for 180000 steps with 480 atoms
