include kalj.lmp
units lj
atom_style atomic

variable dimensions equal 3
variable density equal 1.2
variable fraca equal 0.8

dimension 3

#setup box
variable boxlength equal exp(ln(400)/3)
variable ntypea equal floor(0.8*480)
variable bstart equal 384+1
variable ntypeb equal 480-384

lattice fcc 1.2
Lattice spacing in x,y,z = 1.4938016 1.4938016 1.4938016
region box01 block 0 7.36806299728077 0 7.36806299728077 0 7.36806299728077 units box
create_box 2 box01 # 2 atomtypes
Created orthogonal box = (0 0 0) to (7.368063 7.368063 7.368063)
create_atoms 1 box
Created 500 atoms

set atom 385* type 2
Setting atom values ...
  116 settings made for type
group extra id > 480
20 atoms in group extra
delete_atoms group extra
Deleted 20 atoms, new total = 480
group typea type 1
384 atoms in group typea
group typeb type 2
96 atoms in group typeb

include kalj_particles.lmp
mass * 1.0 #  set mass 1.0 for all types

pair_style lj/cut 2.5
#pair coeffs type1 type2 eps sigma
pair_coeff 1 1 1.0 1.00 2.5
pair_coeff 1 2 1.5 0.80 2.0
pair_coeff 2 2 0.5 0.88 2.2
pair_modify shift yes

print "Minimizing initial structure"
Minimizing initial structure
restart 10000 equil/kalj_T2_n480_v400_10000_1.final.lmprestart
dump 1 all atom 10000 equil/kalj_T2_n480_v400_10000_1.lammpstrj
thermo 1000
timestep 0.001
neighbor 0.5 bin
neigh_modify every 1 delay 0 check yes
fix 1 all nve/limit 0.1
run 10000
Generated 0 of 1 mixed pair_coeff terms from geometric mixing rule
Step          Temp          E_pair         E_mol          TotEng         Press
0   0             -5.4233338      0             -5.4233338      13.690924
Averages over the last 6 of 11 rows, steps 5000 to 10000:
Temp E_pair E_mol TotEng Press
0.622908 -6.35588 0 -5.42347 7.20302
Loop time of 1.18064 on 4 procs for 10000 steps with 480 atoms
